<?xml version="1.0" encoding="UTF-8"?>

<!-- generated on 09/05/19 23:50:09 by Eclipse SUMO netedit Version 1.1.0
<configuration xmlns:xsi="http://www.w3.org/2001/XMLSchema-instance" xsi:noNamespaceSchemaLocation="http://sumo.dlr.de/xsd/netconvertConfiguration.xsd">

    <input>
        <sumo-net-file value="C:\code\vanet\scenarios\4x1.net.xml"/>
    </input>

    <output>
        <output-file value="C:\code\vanet\scenarios\4x1.net.xml"/>
    </output>

    <processing>
        <geometry.max-grade.fix value="false"/>
        <offset.disable-normalization value="true"/>
        <lefthand value="false"/>
    </processing>

    <junctions>
        <no-turnarounds value="true"/>
        <junctions.corner-detail value="5"/>
        <junctions.limit-turn-speed value="5.5"/>
        <rectangular-lane-cut value="false"/>
    </junctions>

    <pedestrian>
        <walkingareas value="false"/>
    </pedestrian>

</configuration>
-->

<net version="1.1" junctionCornerDetail="5" limitTurnSpeed="5.50" xmlns:xsi="http://www.w3.org/2001/XMLSchema-instance" xsi:noNamespaceSchemaLocation="http://sumo.dlr.de/xsd/net_file.xsd">

    <location netOffset="0.00,0.00" convBoundary="-120.00,-120.00,120.00,120.00" origBoundary="-10000000000.00,-10000000000.00,10000000000.00,10000000000.00" projParameter="!"/>

    <edge id=":11_0" function="internal">
        <lane id=":11_0_0" index="0" speed="6.51" length="9.03" shape="-1.60,7.20 -1.95,4.75 -3.00,3.00 -4.75,1.95 -7.20,1.60"/>
    </edge>
    <edge id=":11_1" function="internal">
        <lane id=":11_1_0" index="0" speed="13.89" length="14.40" shape="-1.60,7.20 -1.60,-7.20"/>
    </edge>
    <edge id=":11_2" function="internal">
        <lane id=":11_2_0" index="0" speed="8.00" length="5.93" shape="-1.60,7.20 -1.05,3.35 0.00,1.60"/>
    </edge>
    <edge id=":11_12" function="internal">
        <lane id=":11_12_0" index="0" speed="8.00" length="8.26" shape="0.00,1.60 0.60,0.60 3.35,-1.05 7.20,-1.60"/>
    </edge>
    <edge id=":11_3" function="internal">
        <lane id=":11_3_0" index="0" speed="6.51" length="9.03" shape="7.20,1.60 4.75,1.95 3.00,3.00 1.95,4.75 1.60,7.20"/>
    </edge>
    <edge id=":11_4" function="internal">
        <lane id=":11_4_0" index="0" speed="13.89" length="14.40" shape="7.20,1.60 -7.20,1.60"/>
    </edge>
    <edge id=":11_5" function="internal">
        <lane id=":11_5_0" index="0" speed="8.00" length="5.93" shape="7.20,1.60 3.35,1.05 1.60,0.00"/>
    </edge>
    <edge id=":11_13" function="internal">
        <lane id=":11_13_0" index="0" speed="8.00" length="8.26" shape="1.60,0.00 0.60,-0.60 -1.05,-3.35 -1.60,-7.20"/>
    </edge>
    <edge id=":11_6" function="internal">
        <lane id=":11_6_0" index="0" speed="6.51" length="9.03" shape="1.60,-7.20 1.95,-4.75 3.00,-3.00 4.75,-1.95 7.20,-1.60"/>
    </edge>
    <edge id=":11_7" function="internal">
        <lane id=":11_7_0" index="0" speed="13.89" length="14.40" shape="1.60,-7.20 1.60,7.20"/>
    </edge>
    <edge id=":11_8" function="internal">
        <lane id=":11_8_0" index="0" speed="8.00" length="5.93" shape="1.60,-7.20 1.05,-3.35 0.00,-1.60"/>
    </edge>
    <edge id=":11_14" function="internal">
        <lane id=":11_14_0" index="0" speed="8.00" length="8.26" shape="0.00,-1.60 -0.60,-0.60 -3.35,1.05 -7.20,1.60"/>
    </edge>
    <edge id=":11_9" function="internal">
        <lane id=":11_9_0" index="0" speed="6.51" length="9.03" shape="-7.20,-1.60 -4.75,-1.95 -3.00,-3.00 -1.95,-4.75 -1.60,-7.20"/>
    </edge>
    <edge id=":11_10" function="internal">
        <lane id=":11_10_0" index="0" speed="13.89" length="14.40" shape="-7.20,-1.60 7.20,-1.60"/>
    </edge>
    <edge id=":11_11" function="internal">
        <lane id=":11_11_0" index="0" speed="8.00" length="5.93" shape="-7.20,-1.60 -3.35,-1.05 -1.60,0.00"/>
    </edge>
    <edge id=":11_15" function="internal">
        <lane id=":11_15_0" index="0" speed="8.00" length="8.26" shape="-1.60,0.00 -0.60,0.60 1.05,3.35 1.60,7.20"/>
    </edge>

    <edge id="0111" from="01" to="11" priority="-1">
        <lane id="0111_0" index="0" speed="13.89" length="112.80" shape="-120.00,-1.60 -7.20,-1.60"/>
    </edge>
    <edge id="1011" from="10" to="11" priority="-1">
        <lane id="1011_0" index="0" speed="13.89" length="112.80" shape="1.60,-120.00 1.60,-7.20"/>
    </edge>
    <edge id="1101" from="11" to="01" priority="-1">
        <lane id="1101_0" index="0" speed="13.89" length="112.80" shape="-7.20,1.60 -120.00,1.60"/>
    </edge>
    <edge id="1110" from="11" to="10" priority="-1">
        <lane id="1110_0" index="0" speed="13.89" length="112.80" shape="-1.60,-7.20 -1.60,-120.00"/>
    </edge>
    <edge id="1112" from="11" to="12" priority="-1">
        <lane id="1112_0" index="0" speed="13.89" length="112.80" shape="1.60,7.20 1.60,120.00"/>
    </edge>
    <edge id="1121" from="11" to="21" priority="-1">
        <lane id="1121_0" index="0" speed="13.89" length="112.80" shape="7.20,-1.60 120.00,-1.60"/>
    </edge>
    <edge id="1211" from="12" to="11" priority="-1">
        <lane id="1211_0" index="0" speed="13.89" length="112.80" shape="-1.60,120.00 -1.60,7.20"/>
    </edge>
    <edge id="2111" from="21" to="11" priority="-1">
        <lane id="2111_0" index="0" speed="13.89" length="112.80" shape="120.00,1.60 7.20,1.60"/>
    </edge>

    <tlLogic id="gneJ11" type="static" programID="0" offset="0">
        <phase duration="42" state="GGgrrrGGgrrr"/>
        <phase duration="3"  state="yyyrrryyyrrr"/>
        <phase duration="42" state="rrrGGgrrrGGg"/>
        <phase duration="3"  state="rrryyyrrryyy"/>
    </tlLogic>

    <junction id="01" type="dead_end" x="-120.00" y="0.00" incLanes="1101_0" intLanes="" shape="-120.00,0.00 -120.00,3.20 -120.00,0.00"/>
    <junction id="10" type="dead_end" x="0.00" y="-120.00" incLanes="1110_0" intLanes="" shape="0.00,-120.00 -3.20,-120.00 0.00,-120.00"/>
    <junction id="11" type="traffic_light" x="0.00" y="0.00" incLanes="1211_0 2111_0 1011_0 0111_0" intLanes=":11_0_0 :11_1_0 :11_12_0 :11_3_0 :11_4_0 :11_13_0 :11_6_0 :11_7_0 :11_14_0 :11_9_0 :11_10_0 :11_15_0" shape="-3.20,7.20 3.20,7.20 3.64,4.98 4.20,4.20 4.98,3.64 5.98,3.31 7.20,3.20 7.20,-3.20 4.98,-3.64 4.20,-4.20 3.64,-4.98 3.31,-5.98 3.20,-7.20 -3.20,-7.20 -3.64,-4.98 -4.20,-4.20 -4.98,-3.64 -5.98,-3.31 -7.20,-3.20 -7.20,3.20 -4.98,3.64 -4.20,4.20 -3.64,4.98 -3.31,5.98">
        <request index="0"  response="000000000000" foes="000100010000" cont="0"/>
        <request index="1"  response="100000100000" foes="111100110000" cont="0"/>
        <request index="2"  response="100011100000" foes="110011110000" cont="1"/>
        <request index="3"  response="000010000000" foes="100010000000" cont="0"/>
        <request index="4"  response="000110000111" foes="100110000111" cont="0"/>
        <request index="5"  response="011110000110" foes="011110000110" cont="1"/>
        <request index="6"  response="000000000000" foes="010000000100" cont="0"/>
        <request index="7"  response="100000100000" foes="110000111100" cont="0"/>
        <request index="8"  response="100000100011" foes="110000110011" cont="1"/>
        <request index="9"  response="000000000010" foes="000000100010" cont="0"/>
        <request index="10" response="000111000110" foes="000111100110" cont="0"/>
        <request index="11" response="000110011110" foes="000110011110" cont="1"/>
    </junction>
    <junction id="12" type="dead_end" x="0.00" y="120.00" incLanes="1112_0" intLanes="" shape="0.00,120.00 3.20,120.00 0.00,120.00"/>
    <junction id="21" type="dead_end" x="120.00" y="0.00" incLanes="1121_0" intLanes="" shape="120.00,0.00 120.00,-3.20 120.00,0.00"/>

    <junction id=":11_12_0" type="internal" x="0.00" y="1.60" incLanes=":11_2_0 1011_0" intLanes=":11_4_0 :11_5_0 :11_6_0 :11_7_0 :11_10_0 :11_11_0"/>
    <junction id=":11_13_0" type="internal" x="1.60" y="0.00" incLanes=":11_5_0 0111_0" intLanes=":11_1_0 :11_2_0 :11_7_0 :11_8_0 :11_9_0 :11_10_0"/>
    <junction id=":11_14_0" type="internal" x="0.00" y="-1.60" incLanes=":11_8_0 1211_0" intLanes=":11_0_0 :11_1_0 :11_4_0 :11_5_0 :11_10_0 :11_11_0"/>
    <junction id=":11_15_0" type="internal" x="-1.60" y="0.00" incLanes=":11_11_0 2111_0" intLanes=":11_1_0 :11_2_0 :11_3_0 :11_4_0 :11_7_0 :11_8_0"/>

    <connection from="0111" to="1110" fromLane="0" toLane="0" via=":11_9_0" tl="gneJ11" linkIndex="9" dir="r" state="o"/>
    <connection from="0111" to="1121" fromLane="0" toLane="0" via=":11_10_0" tl="gneJ11" linkIndex="10" dir="s" state="o"/>
    <connection from="0111" to="1112" fromLane="0" toLane="0" via=":11_11_0" tl="gneJ11" linkIndex="11" dir="l" state="o"/>
    <connection from="1011" to="1121" fromLane="0" toLane="0" via=":11_6_0" tl="gneJ11" linkIndex="6" dir="r" state="O"/>
    <connection from="1011" to="1112" fromLane="0" toLane="0" via=":11_7_0" tl="gneJ11" linkIndex="7" dir="s" state="O"/>
    <connection from="1011" to="1101" fromLane="0" toLane="0" via=":11_8_0" tl="gneJ11" linkIndex="8" dir="l" state="o"/>
    <connection from="1211" to="1101" fromLane="0" toLane="0" via=":11_0_0" tl="gneJ11" linkIndex="0" dir="r" state="O"/>
    <connection from="1211" to="1110" fromLane="0" toLane="0" via=":11_1_0" tl="gneJ11" linkIndex="1" dir="s" state="O"/>
    <connection from="1211" to="1121" fromLane="0" toLane="0" via=":11_2_0" tl="gneJ11" linkIndex="2" dir="l" state="o"/>
    <connection from="2111" to="1112" fromLane="0" toLane="0" via=":11_3_0" tl="gneJ11" linkIndex="3" dir="r" state="o"/>
    <connection from="2111" to="1101" fromLane="0" toLane="0" via=":11_4_0" tl="gneJ11" linkIndex="4" dir="s" state="o"/>
    <connection from="2111" to="1110" fromLane="0" toLane="0" via=":11_5_0" tl="gneJ11" linkIndex="5" dir="l" state="o"/>

    <connection from=":11_0" to="1101" fromLane="0" toLane="0" dir="r" state="M"/>
    <connection from=":11_1" to="1110" fromLane="0" toLane="0" dir="s" state="M"/>
    <connection from=":11_2" to="1121" fromLane="0" toLane="0" via=":11_12_0" dir="l" state="m"/>
    <connection from=":11_12" to="1121" fromLane="0" toLane="0" dir="l" state="M"/>
    <connection from=":11_3" to="1112" fromLane="0" toLane="0" dir="r" state="M"/>
    <connection from=":11_4" to="1101" fromLane="0" toLane="0" dir="s" state="M"/>
    <connection from=":11_5" to="1110" fromLane="0" toLane="0" via=":11_13_0" dir="l" state="m"/>
    <connection from=":11_13" to="1110" fromLane="0" toLane="0" dir="l" state="M"/>
    <connection from=":11_6" to="1121" fromLane="0" toLane="0" dir="r" state="M"/>
    <connection from=":11_7" to="1112" fromLane="0" toLane="0" dir="s" state="M"/>
    <connection from=":11_8" to="1101" fromLane="0" toLane="0" via=":11_14_0" dir="l" state="m"/>
    <connection from=":11_14" to="1101" fromLane="0" toLane="0" dir="l" state="M"/>
    <connection from=":11_9" to="1110" fromLane="0" toLane="0" dir="r" state="M"/>
    <connection from=":11_10" to="1121" fromLane="0" toLane="0" dir="s" state="M"/>
    <connection from=":11_11" to="1112" fromLane="0" toLane="0" via=":11_15_0" dir="l" state="m"/>
    <connection from=":11_15" to="1112" fromLane="0" toLane="0" dir="l" state="M"/>

</net>
