<routes>   <route id="NtCCtN" edges="NtC CtN"/>
    <route id="NtCCtE" edges="NtC CtE"/>
    <route id="NtCCtW" edges="NtC CtW"/>
    <route id="NtCCtS" edges="NtC CtS"/>
    <route id="EtCCtN" edges="EtC CtN"/>
    <route id="EtCCtE" edges="EtC CtE"/>
    <route id="EtCCtW" edges="EtC CtW"/>
    <route id="EtCCtS" edges="EtC CtS"/>
    <route id="WtCCtN" edges="WtC CtN"/>
    <route id="WtCCtE" edges="WtC CtE"/>
    <route id="WtCCtW" edges="WtC CtW"/>
    <route id="WtCCtS" edges="WtC CtS"/>
    <route id="StCCtN" edges="StC CtN"/>
    <route id="StCCtE" edges="StC CtE"/>
    <route id="StCCtW" edges="StC CtW"/>
    <route id="StCCtS" edges="StC CtS"/><vehicle actionStepLength="200" depart="0" id="0" route="WtCCtS" /><vehicle actionStepLength="800" depart="1" id="1" route="EtCCtE" /><vehicle actionStepLength="20" depart="2" id="2" route="WtCCtS" /><vehicle actionStepLength="20" depart="3" id="3" route="StCCtN" /><vehicle actionStepLength="200" depart="4" id="4" route="WtCCtE" /><vehicle actionStepLength="200" depart="5" id="5" route="EtCCtN" /><vehicle actionStepLength="200" depart="6" id="6" route="NtCCtS" /><vehicle actionStepLength="2" depart="7" id="7" route="WtCCtS" /><vehicle actionStepLength="200" depart="8" id="8" route="NtCCtW" /><vehicle actionStepLength="200" depart="9" id="9" route="NtCCtE" /><vehicle actionStepLength="800" depart="10" id="10" route="StCCtN" /><vehicle actionStepLength="20" depart="11" id="11" route="StCCtE" /><vehicle actionStepLength="20" depart="12" id="12" route="WtCCtS" /><vehicle actionStepLength="200" depart="13" id="13" route="EtCCtS" /><vehicle actionStepLength="2" depart="14" id="14" route="WtCCtS" /><vehicle actionStepLength="2" depart="15" id="15" route="EtCCtE" /><vehicle actionStepLength="20" depart="16" id="16" route="NtCCtN" /><vehicle actionStepLength="200" depart="17" id="17" route="WtCCtN" /><vehicle actionStepLength="200" depart="18" id="18" route="EtCCtE" /><vehicle actionStepLength="200" depart="19" id="19" route="StCCtS" /><vehicle actionStepLength="20" depart="20" id="20" route="EtCCtS" /><vehicle actionStepLength="20" depart="21" id="21" route="WtCCtE" /><vehicle actionStepLength="20" depart="22" id="22" route="NtCCtE" /><vehicle actionStepLength="20" depart="23" id="23" route="WtCCtW" /><vehicle actionStepLength="20" depart="24" id="24" route="StCCtS" /><vehicle actionStepLength="20" depart="25" id="25" route="WtCCtW" /><vehicle actionStepLength="20" depart="26" id="26" route="StCCtN" /><vehicle actionStepLength="200" depart="27" id="27" route="WtCCtE" /><vehicle actionStepLength="200" depart="28" id="28" route="EtCCtW" /><vehicle actionStepLength="200" depart="29" id="29" route="WtCCtE" /><vehicle actionStepLength="800" depart="30" id="30" route="StCCtS" /><vehicle actionStepLength="200" depart="31" id="31" route="EtCCtE" /><vehicle actionStepLength="20" depart="32" id="32" route="StCCtS" /><vehicle actionStepLength="200" depart="33" id="33" route="EtCCtE" /><vehicle actionStepLength="200" depart="34" id="34" route="StCCtS" /><vehicle actionStepLength="20" depart="35" id="35" route="NtCCtS" /><vehicle actionStepLength="20" depart="36" id="36" route="StCCtW" /><vehicle actionStepLength="20" depart="37" id="37" route="NtCCtW" /><vehicle actionStepLength="200" depart="38" id="38" route="WtCCtN" /><vehicle actionStepLength="200" depart="39" id="39" route="WtCCtS" /><vehicle actionStepLength="20" depart="40" id="40" route="NtCCtE" /><vehicle actionStepLength="20" depart="41" id="41" route="NtCCtE" /><vehicle actionStepLength="200" depart="42" id="42" route="WtCCtE" /><vehicle actionStepLength="200" depart="43" id="43" route="WtCCtE" /><vehicle actionStepLength="20" depart="44" id="44" route="EtCCtS" /><vehicle actionStepLength="200" depart="45" id="45" route="WtCCtN" /><vehicle actionStepLength="800" depart="46" id="46" route="NtCCtW" /><vehicle actionStepLength="200" depart="47" id="47" route="EtCCtS" /><vehicle actionStepLength="2" depart="48" id="48" route="WtCCtS" /><vehicle actionStepLength="200" depart="49" id="49" route="WtCCtE" /><vehicle actionStepLength="20" depart="50" id="50" route="WtCCtW" /><vehicle actionStepLength="20" depart="51" id="51" route="StCCtW" /><vehicle actionStepLength="2" depart="52" id="52" route="NtCCtN" /><vehicle actionStepLength="20" depart="53" id="53" route="EtCCtE" /><vehicle actionStepLength="20" depart="54" id="54" route="StCCtS" /><vehicle actionStepLength="200" depart="55" id="55" route="StCCtE" /><vehicle actionStepLength="2" depart="56" id="56" route="StCCtN" /><vehicle actionStepLength="800" depart="57" id="57" route="WtCCtW" /><vehicle actionStepLength="20" depart="58" id="58" route="WtCCtW" /><vehicle actionStepLength="20" depart="59" id="59" route="StCCtE" /><vehicle actionStepLength="200" depart="60" id="60" route="NtCCtE" /><vehicle actionStepLength="20" depart="61" id="61" route="NtCCtW" /><vehicle actionStepLength="800" depart="62" id="62" route="StCCtW" /><vehicle actionStepLength="20" depart="63" id="63" route="NtCCtN" /><vehicle actionStepLength="200" depart="64" id="64" route="StCCtW" /><vehicle actionStepLength="20" depart="65" id="65" route="StCCtN" /><vehicle actionStepLength="200" depart="66" id="66" route="NtCCtW" /><vehicle actionStepLength="200" depart="67" id="67" route="EtCCtS" /><vehicle actionStepLength="800" depart="68" id="68" route="WtCCtS" /><vehicle actionStepLength="800" depart="69" id="69" route="StCCtN" /><vehicle actionStepLength="20" depart="70" id="70" route="NtCCtS" /><vehicle actionStepLength="200" depart="71" id="71" route="WtCCtN" /><vehicle actionStepLength="200" depart="72" id="72" route="NtCCtN" /><vehicle actionStepLength="200" depart="73" id="73" route="StCCtN" /><vehicle actionStepLength="200" depart="74" id="74" route="EtCCtN" /><vehicle actionStepLength="200" depart="75" id="75" route="WtCCtN" /><vehicle actionStepLength="200" depart="76" id="76" route="WtCCtS" /><vehicle actionStepLength="200" depart="77" id="77" route="StCCtS" /><vehicle actionStepLength="20" depart="78" id="78" route="WtCCtS" /><vehicle actionStepLength="20" depart="79" id="79" route="StCCtS" /><vehicle actionStepLength="200" depart="80" id="80" route="EtCCtN" /><vehicle actionStepLength="200" depart="81" id="81" route="WtCCtS" /><vehicle actionStepLength="20" depart="82" id="82" route="EtCCtW" /><vehicle actionStepLength="2" depart="83" id="83" route="WtCCtE" /><vehicle actionStepLength="20" depart="84" id="84" route="NtCCtE" /><vehicle actionStepLength="200" depart="85" id="85" route="WtCCtS" /><vehicle actionStepLength="200" depart="86" id="86" route="WtCCtW" /><vehicle actionStepLength="200" depart="87" id="87" route="NtCCtE" /><vehicle actionStepLength="200" depart="88" id="88" route="NtCCtW" /><vehicle actionStepLength="20" depart="89" id="89" route="EtCCtW" /><vehicle actionStepLength="200" depart="90" id="90" route="WtCCtS" /><vehicle actionStepLength="20" depart="91" id="91" route="EtCCtN" /><vehicle actionStepLength="200" depart="92" id="92" route="WtCCtS" /><vehicle actionStepLength="800" depart="93" id="93" route="NtCCtW" /><vehicle actionStepLength="20" depart="94" id="94" route="WtCCtE" /><vehicle actionStepLength="200" depart="95" id="95" route="WtCCtE" /><vehicle actionStepLength="200" depart="96" id="96" route="NtCCtS" /><vehicle actionStepLength="20" depart="97" id="97" route="EtCCtS" /><vehicle actionStepLength="200" depart="98" id="98" route="EtCCtE" /><vehicle actionStepLength="20" depart="99" id="99" route="StCCtW" /><vehicle actionStepLength="800" depart="100" id="100" route="StCCtW" /><vehicle actionStepLength="200" depart="101" id="101" route="EtCCtE" /><vehicle actionStepLength="20" depart="102" id="102" route="NtCCtE" /><vehicle actionStepLength="2" depart="103" id="103" route="NtCCtN" /><vehicle actionStepLength="200" depart="104" id="104" route="NtCCtW" /><vehicle actionStepLength="200" depart="105" id="105" route="WtCCtN" /><vehicle actionStepLength="200" depart="106" id="106" route="WtCCtE" /><vehicle actionStepLength="200" depart="107" id="107" route="EtCCtW" /><vehicle actionStepLength="20" depart="108" id="108" route="WtCCtE" /><vehicle actionStepLength="2" depart="109" id="109" route="EtCCtN" /><vehicle actionStepLength="800" depart="110" id="110" route="WtCCtE" /><vehicle actionStepLength="200" depart="111" id="111" route="NtCCtE" /><vehicle actionStepLength="20" depart="112" id="112" route="WtCCtN" /><vehicle actionStepLength="200" depart="113" id="113" route="StCCtE" /><vehicle actionStepLength="2" depart="114" id="114" route="NtCCtW" /><vehicle actionStepLength="200" depart="115" id="115" route="StCCtE" /><vehicle actionStepLength="200" depart="116" id="116" route="EtCCtN" /><vehicle actionStepLength="20" depart="117" id="117" route="WtCCtE" /><vehicle actionStepLength="200" depart="118" id="118" route="EtCCtS" /><vehicle actionStepLength="20" depart="119" id="119" route="WtCCtS" /><vehicle actionStepLength="20" depart="120" id="120" route="StCCtS" /><vehicle actionStepLength="20" depart="121" id="121" route="StCCtN" /><vehicle actionStepLength="2" depart="122" id="122" route="WtCCtN" /><vehicle actionStepLength="20" depart="123" id="123" route="StCCtN" /><vehicle actionStepLength="200" depart="124" id="124" route="EtCCtN" /><vehicle actionStepLength="2" depart="125" id="125" route="StCCtW" /><vehicle actionStepLength="200" depart="126" id="126" route="StCCtE" /><vehicle actionStepLength="2" depart="127" id="127" route="StCCtS" /><vehicle actionStepLength="800" depart="128" id="128" route="StCCtW" /><vehicle actionStepLength="20" depart="129" id="129" route="StCCtW" /><vehicle actionStepLength="200" depart="130" id="130" route="EtCCtE" /><vehicle actionStepLength="800" depart="131" id="131" route="NtCCtW" /><vehicle actionStepLength="20" depart="132" id="132" route="EtCCtW" /><vehicle actionStepLength="200" depart="133" id="133" route="EtCCtW" /><vehicle actionStepLength="200" depart="134" id="134" route="EtCCtW" /><vehicle actionStepLength="200" depart="135" id="135" route="WtCCtS" /><vehicle actionStepLength="2" depart="136" id="136" route="StCCtN" /><vehicle actionStepLength="800" depart="137" id="137" route="NtCCtE" /><vehicle actionStepLength="200" depart="138" id="138" route="EtCCtE" /><vehicle actionStepLength="800" depart="139" id="139" route="NtCCtN" /><vehicle actionStepLength="20" depart="140" id="140" route="EtCCtE" /><vehicle actionStepLength="20" depart="141" id="141" route="EtCCtW" /><vehicle actionStepLength="200" depart="142" id="142" route="NtCCtS" /><vehicle actionStepLength="200" depart="143" id="143" route="WtCCtW" /><vehicle actionStepLength="200" depart="144" id="144" route="NtCCtE" /><vehicle actionStepLength="20" depart="145" id="145" route="EtCCtS" /><vehicle actionStepLength="2" depart="146" id="146" route="StCCtW" /><vehicle actionStepLength="20" depart="147" id="147" route="EtCCtS" /><vehicle actionStepLength="800" depart="148" id="148" route="WtCCtW" /><vehicle actionStepLength="20" depart="149" id="149" route="StCCtN" /><vehicle actionStepLength="800" depart="150" id="150" route="EtCCtS" /><vehicle actionStepLength="200" depart="151" id="151" route="StCCtE" /><vehicle actionStepLength="200" depart="152" id="152" route="WtCCtW" /><vehicle actionStepLength="20" depart="153" id="153" route="NtCCtW" /><vehicle actionStepLength="200" depart="154" id="154" route="WtCCtE" /><vehicle actionStepLength="200" depart="155" id="155" route="WtCCtW" /><vehicle actionStepLength="200" depart="156" id="156" route="EtCCtW" /><vehicle actionStepLength="20" depart="157" id="157" route="NtCCtN" /><vehicle actionStepLength="200" depart="158" id="158" route="EtCCtW" /><vehicle actionStepLength="200" depart="159" id="159" route="EtCCtE" /><vehicle actionStepLength="20" depart="160" id="160" route="EtCCtE" /><vehicle actionStepLength="20" depart="161" id="161" route="NtCCtW" /><vehicle actionStepLength="200" depart="162" id="162" route="EtCCtE" /><vehicle actionStepLength="20" depart="163" id="163" route="StCCtE" /><vehicle actionStepLength="20" depart="164" id="164" route="NtCCtN" /><vehicle actionStepLength="20" depart="165" id="165" route="NtCCtS" /><vehicle actionStepLength="20" depart="166" id="166" route="StCCtW" /><vehicle actionStepLength="200" depart="167" id="167" route="NtCCtE" /><vehicle actionStepLength="20" depart="168" id="168" route="WtCCtE" /><vehicle actionStepLength="20" depart="169" id="169" route="StCCtS" /><vehicle actionStepLength="200" depart="170" id="170" route="EtCCtS" /><vehicle actionStepLength="200" depart="171" id="171" route="EtCCtE" /><vehicle actionStepLength="2" depart="172" id="172" route="StCCtW" /><vehicle actionStepLength="800" depart="173" id="173" route="EtCCtS" /><vehicle actionStepLength="800" depart="174" id="174" route="NtCCtN" /><vehicle actionStepLength="200" depart="175" id="175" route="NtCCtW" /><vehicle actionStepLength="200" depart="176" id="176" route="StCCtN" /><vehicle actionStepLength="20" depart="177" id="177" route="NtCCtW" /><vehicle actionStepLength="20" depart="178" id="178" route="NtCCtS" /><vehicle actionStepLength="20" depart="179" id="179" route="WtCCtN" /><vehicle actionStepLength="200" depart="180" id="180" route="StCCtE" /><vehicle actionStepLength="20" depart="181" id="181" route="EtCCtN" /><vehicle actionStepLength="20" depart="182" id="182" route="EtCCtE" /><vehicle actionStepLength="20" depart="183" id="183" route="StCCtN" /><vehicle actionStepLength="200" depart="184" id="184" route="NtCCtN" /><vehicle actionStepLength="800" depart="185" id="185" route="NtCCtW" /><vehicle actionStepLength="2" depart="186" id="186" route="NtCCtN" /><vehicle actionStepLength="20" depart="187" id="187" route="WtCCtW" /><vehicle actionStepLength="20" depart="188" id="188" route="NtCCtW" /><vehicle actionStepLength="20" depart="189" id="189" route="EtCCtE" /><vehicle actionStepLength="20" depart="190" id="190" route="StCCtE" /><vehicle actionStepLength="20" depart="191" id="191" route="StCCtN" /><vehicle actionStepLength="20" depart="192" id="192" route="NtCCtN" /><vehicle actionStepLength="2" depart="193" id="193" route="WtCCtS" /><vehicle actionStepLength="2" depart="194" id="194" route="StCCtS" /><vehicle actionStepLength="20" depart="195" id="195" route="NtCCtS" /><vehicle actionStepLength="200" depart="196" id="196" route="EtCCtN" /><vehicle actionStepLength="200" depart="197" id="197" route="WtCCtN" /><vehicle actionStepLength="200" depart="198" id="198" route="NtCCtS" /><vehicle actionStepLength="200" depart="199" id="199" route="EtCCtS" /><vehicle actionStepLength="200" depart="200" id="200" route="NtCCtS" /><vehicle actionStepLength="200" depart="201" id="201" route="EtCCtE" /><vehicle actionStepLength="20" depart="202" id="202" route="NtCCtW" /><vehicle actionStepLength="2" depart="203" id="203" route="NtCCtN" /><vehicle actionStepLength="800" depart="204" id="204" route="NtCCtE" /><vehicle actionStepLength="20" depart="205" id="205" route="EtCCtN" /><vehicle actionStepLength="20" depart="206" id="206" route="NtCCtS" /><vehicle actionStepLength="200" depart="207" id="207" route="WtCCtW" /><vehicle actionStepLength="20" depart="208" id="208" route="StCCtW" /><vehicle actionStepLength="2" depart="209" id="209" route="NtCCtW" /><vehicle actionStepLength="20" depart="210" id="210" route="EtCCtN" /><vehicle actionStepLength="200" depart="211" id="211" route="StCCtS" /><vehicle actionStepLength="200" depart="212" id="212" route="EtCCtE" /><vehicle actionStepLength="800" depart="213" id="213" route="WtCCtS" /><vehicle actionStepLength="200" depart="214" id="214" route="StCCtN" /><vehicle actionStepLength="2" depart="215" id="215" route="StCCtS" /><vehicle actionStepLength="200" depart="216" id="216" route="EtCCtN" /><vehicle actionStepLength="200" depart="217" id="217" route="NtCCtS" /><vehicle actionStepLength="200" depart="218" id="218" route="WtCCtN" /><vehicle actionStepLength="20" depart="219" id="219" route="NtCCtE" /><vehicle actionStepLength="20" depart="220" id="220" route="EtCCtN" /><vehicle actionStepLength="200" depart="221" id="221" route="StCCtE" /><vehicle actionStepLength="20" depart="222" id="222" route="NtCCtS" /><vehicle actionStepLength="2" depart="223" id="223" route="NtCCtW" /><vehicle actionStepLength="800" depart="224" id="224" route="WtCCtE" /><vehicle actionStepLength="200" depart="225" id="225" route="StCCtN" /><vehicle actionStepLength="20" depart="226" id="226" route="NtCCtE" /><vehicle actionStepLength="200" depart="227" id="227" route="EtCCtW" /><vehicle actionStepLength="20" depart="228" id="228" route="WtCCtS" /><vehicle actionStepLength="200" depart="229" id="229" route="WtCCtS" /><vehicle actionStepLength="20" depart="230" id="230" route="StCCtE" /><vehicle actionStepLength="2" depart="231" id="231" route="EtCCtW" /><vehicle actionStepLength="20" depart="232" id="232" route="NtCCtE" /><vehicle actionStepLength="200" depart="233" id="233" route="WtCCtE" /><vehicle actionStepLength="200" depart="234" id="234" route="EtCCtS" /><vehicle actionStepLength="200" depart="235" id="235" route="WtCCtW" /><vehicle actionStepLength="800" depart="236" id="236" route="NtCCtN" /><vehicle actionStepLength="20" depart="237" id="237" route="WtCCtE" /><vehicle actionStepLength="20" depart="238" id="238" route="WtCCtW" /><vehicle actionStepLength="2" depart="239" id="239" route="WtCCtS" /><vehicle actionStepLength="200" depart="240" id="240" route="EtCCtN" /><vehicle actionStepLength="20" depart="241" id="241" route="StCCtN" /><vehicle actionStepLength="2" depart="242" id="242" route="WtCCtW" /><vehicle actionStepLength="200" depart="243" id="243" route="StCCtW" /><vehicle actionStepLength="800" depart="244" id="244" route="StCCtS" /><vehicle actionStepLength="20" depart="245" id="245" route="EtCCtS" /><vehicle actionStepLength="200" depart="246" id="246" route="StCCtS" /><vehicle actionStepLength="2" depart="247" id="247" route="StCCtN" /><vehicle actionStepLength="20" depart="248" id="248" route="StCCtS" /><vehicle actionStepLength="2" depart="249" id="249" route="NtCCtN" /><vehicle actionStepLength="200" depart="250" id="250" route="StCCtS" /><vehicle actionStepLength="2" depart="251" id="251" route="EtCCtS" /><vehicle actionStepLength="20" depart="252" id="252" route="StCCtE" /><vehicle actionStepLength="200" depart="253" id="253" route="StCCtN" /><vehicle actionStepLength="20" depart="254" id="254" route="NtCCtE" /><vehicle actionStepLength="800" depart="255" id="255" route="WtCCtW" /><vehicle actionStepLength="800" depart="256" id="256" route="WtCCtW" /><vehicle actionStepLength="200" depart="257" id="257" route="WtCCtW" /><vehicle actionStepLength="800" depart="258" id="258" route="NtCCtE" /><vehicle actionStepLength="200" depart="259" id="259" route="StCCtE" /><vehicle actionStepLength="20" depart="260" id="260" route="WtCCtW" /><vehicle actionStepLength="800" depart="261" id="261" route="NtCCtW" /><vehicle actionStepLength="200" depart="262" id="262" route="WtCCtS" /><vehicle actionStepLength="200" depart="263" id="263" route="WtCCtE" /><vehicle actionStepLength="200" depart="264" id="264" route="EtCCtN" /><vehicle actionStepLength="20" depart="265" id="265" route="WtCCtN" /><vehicle actionStepLength="800" depart="266" id="266" route="WtCCtN" /><vehicle actionStepLength="200" depart="267" id="267" route="StCCtW" /><vehicle actionStepLength="20" depart="268" id="268" route="EtCCtS" /><vehicle actionStepLength="800" depart="269" id="269" route="StCCtS" /><vehicle actionStepLength="2" depart="270" id="270" route="StCCtS" /><vehicle actionStepLength="200" depart="271" id="271" route="EtCCtN" /><vehicle actionStepLength="800" depart="272" id="272" route="StCCtW" /><vehicle actionStepLength="2" depart="273" id="273" route="StCCtW" /><vehicle actionStepLength="20" depart="274" id="274" route="StCCtE" /><vehicle actionStepLength="200" depart="275" id="275" route="StCCtE" /><vehicle actionStepLength="200" depart="276" id="276" route="EtCCtN" /><vehicle actionStepLength="200" depart="277" id="277" route="StCCtW" /><vehicle actionStepLength="800" depart="278" id="278" route="WtCCtE" /><vehicle actionStepLength="20" depart="279" id="279" route="EtCCtS" /><vehicle actionStepLength="200" depart="280" id="280" route="EtCCtS" /><vehicle actionStepLength="200" depart="281" id="281" route="StCCtN" /><vehicle actionStepLength="20" depart="282" id="282" route="WtCCtN" /><vehicle actionStepLength="20" depart="283" id="283" route="EtCCtE" /><vehicle actionStepLength="200" depart="284" id="284" route="WtCCtS" /><vehicle actionStepLength="20" depart="285" id="285" route="WtCCtN" /><vehicle actionStepLength="20" depart="286" id="286" route="WtCCtW" /><vehicle actionStepLength="20" depart="287" id="287" route="WtCCtW" /><vehicle actionStepLength="20" depart="288" id="288" route="WtCCtS" /><vehicle actionStepLength="200" depart="289" id="289" route="WtCCtW" /><vehicle actionStepLength="20" depart="290" id="290" route="StCCtE" /><vehicle actionStepLength="200" depart="291" id="291" route="WtCCtS" /><vehicle actionStepLength="200" depart="292" id="292" route="WtCCtE" /><vehicle actionStepLength="200" depart="293" id="293" route="WtCCtE" /><vehicle actionStepLength="200" depart="294" id="294" route="NtCCtN" /><vehicle actionStepLength="20" depart="295" id="295" route="NtCCtS" /><vehicle actionStepLength="2" depart="296" id="296" route="WtCCtS" /><vehicle actionStepLength="20" depart="297" id="297" route="NtCCtE" /><vehicle actionStepLength="20" depart="298" id="298" route="NtCCtN" /><vehicle actionStepLength="200" depart="299" id="299" route="WtCCtW" /><vehicle actionStepLength="20" depart="300" id="300" route="EtCCtS" /><vehicle actionStepLength="20" depart="301" id="301" route="StCCtE" /><vehicle actionStepLength="20" depart="302" id="302" route="NtCCtW" /><vehicle actionStepLength="2" depart="303" id="303" route="StCCtN" /><vehicle actionStepLength="200" depart="304" id="304" route="EtCCtW" /><vehicle actionStepLength="200" depart="305" id="305" route="WtCCtS" /><vehicle actionStepLength="20" depart="306" id="306" route="StCCtE" /><vehicle actionStepLength="20" depart="307" id="307" route="StCCtE" /><vehicle actionStepLength="200" depart="308" id="308" route="StCCtW" /><vehicle actionStepLength="20" depart="309" id="309" route="StCCtE" /><vehicle actionStepLength="800" depart="310" id="310" route="EtCCtW" /><vehicle actionStepLength="200" depart="311" id="311" route="WtCCtE" /><vehicle actionStepLength="20" depart="312" id="312" route="NtCCtS" /><vehicle actionStepLength="800" depart="313" id="313" route="NtCCtW" /><vehicle actionStepLength="200" depart="314" id="314" route="NtCCtS" /><vehicle actionStepLength="20" depart="315" id="315" route="EtCCtW" /><vehicle actionStepLength="200" depart="316" id="316" route="StCCtS" /><vehicle actionStepLength="20" depart="317" id="317" route="EtCCtN" /><vehicle actionStepLength="200" depart="318" id="318" route="WtCCtS" /><vehicle actionStepLength="20" depart="319" id="319" route="EtCCtS" /><vehicle actionStepLength="2" depart="320" id="320" route="StCCtN" /><vehicle actionStepLength="20" depart="321" id="321" route="WtCCtS" /><vehicle actionStepLength="20" depart="322" id="322" route="EtCCtN" /><vehicle actionStepLength="2" depart="323" id="323" route="StCCtN" /><vehicle actionStepLength="800" depart="324" id="324" route="EtCCtN" /><vehicle actionStepLength="200" depart="325" id="325" route="StCCtN" /><vehicle actionStepLength="200" depart="326" id="326" route="EtCCtE" /><vehicle actionStepLength="200" depart="327" id="327" route="WtCCtS" /><vehicle actionStepLength="20" depart="328" id="328" route="WtCCtE" /><vehicle actionStepLength="200" depart="329" id="329" route="EtCCtW" /><vehicle actionStepLength="800" depart="330" id="330" route="NtCCtS" /><vehicle actionStepLength="200" depart="331" id="331" route="StCCtW" /><vehicle actionStepLength="2" depart="332" id="332" route="NtCCtW" /><vehicle actionStepLength="20" depart="333" id="333" route="WtCCtN" /><vehicle actionStepLength="200" depart="334" id="334" route="StCCtS" /><vehicle actionStepLength="2" depart="335" id="335" route="NtCCtN" /><vehicle actionStepLength="200" depart="336" id="336" route="NtCCtW" /><vehicle actionStepLength="2" depart="337" id="337" route="WtCCtS" /><vehicle actionStepLength="200" depart="338" id="338" route="EtCCtN" /><vehicle actionStepLength="200" depart="339" id="339" route="StCCtN" /><vehicle actionStepLength="200" depart="340" id="340" route="StCCtE" /><vehicle actionStepLength="800" depart="341" id="341" route="EtCCtN" /><vehicle actionStepLength="20" depart="342" id="342" route="StCCtE" /><vehicle actionStepLength="20" depart="343" id="343" route="NtCCtE" /><vehicle actionStepLength="2" depart="344" id="344" route="NtCCtS" /><vehicle actionStepLength="800" depart="345" id="345" route="EtCCtW" /><vehicle actionStepLength="20" depart="346" id="346" route="EtCCtS" /><vehicle actionStepLength="200" depart="347" id="347" route="StCCtW" /><vehicle actionStepLength="800" depart="348" id="348" route="StCCtN" /><vehicle actionStepLength="200" depart="349" id="349" route="StCCtE" /><vehicle actionStepLength="20" depart="350" id="350" route="WtCCtE" /><vehicle actionStepLength="800" depart="351" id="351" route="NtCCtN" /><vehicle actionStepLength="20" depart="352" id="352" route="StCCtW" /><vehicle actionStepLength="20" depart="353" id="353" route="NtCCtE" /><vehicle actionStepLength="800" depart="354" id="354" route="NtCCtN" /><vehicle actionStepLength="200" depart="355" id="355" route="NtCCtE" /><vehicle actionStepLength="2" depart="356" id="356" route="StCCtS" /><vehicle actionStepLength="200" depart="357" id="357" route="StCCtS" /><vehicle actionStepLength="20" depart="358" id="358" route="EtCCtW" /><vehicle actionStepLength="200" depart="359" id="359" route="WtCCtW" /><vehicle actionStepLength="800" depart="360" id="360" route="StCCtN" /><vehicle actionStepLength="20" depart="361" id="361" route="WtCCtS" /><vehicle actionStepLength="200" depart="362" id="362" route="WtCCtN" /><vehicle actionStepLength="20" depart="363" id="363" route="EtCCtN" /><vehicle actionStepLength="20" depart="364" id="364" route="EtCCtW" /><vehicle actionStepLength="200" depart="365" id="365" route="StCCtW" /><vehicle actionStepLength="20" depart="366" id="366" route="EtCCtN" /><vehicle actionStepLength="800" depart="367" id="367" route="EtCCtN" /><vehicle actionStepLength="2" depart="368" id="368" route="WtCCtS" /><vehicle actionStepLength="200" depart="369" id="369" route="NtCCtN" /><vehicle actionStepLength="200" depart="370" id="370" route="EtCCtW" /><vehicle actionStepLength="200" depart="371" id="371" route="StCCtE" /><vehicle actionStepLength="800" depart="372" id="372" route="EtCCtN" /><vehicle actionStepLength="20" depart="373" id="373" route="StCCtE" /><vehicle actionStepLength="20" depart="374" id="374" route="NtCCtE" /><vehicle actionStepLength="20" depart="375" id="375" route="StCCtE" /><vehicle actionStepLength="200" depart="376" id="376" route="NtCCtW" /><vehicle actionStepLength="800" depart="377" id="377" route="WtCCtS" /><vehicle actionStepLength="200" depart="378" id="378" route="WtCCtS" /><vehicle actionStepLength="200" depart="379" id="379" route="StCCtN" /><vehicle actionStepLength="800" depart="380" id="380" route="WtCCtW" /><vehicle actionStepLength="200" depart="381" id="381" route="NtCCtE" /><vehicle actionStepLength="20" depart="382" id="382" route="EtCCtN" /><vehicle actionStepLength="2" depart="383" id="383" route="EtCCtW" /><vehicle actionStepLength="200" depart="384" id="384" route="StCCtN" /><vehicle actionStepLength="2" depart="385" id="385" route="EtCCtN" /><vehicle actionStepLength="200" depart="386" id="386" route="NtCCtE" /><vehicle actionStepLength="200" depart="387" id="387" route="StCCtE" /><vehicle actionStepLength="20" depart="388" id="388" route="NtCCtW" /><vehicle actionStepLength="800" depart="389" id="389" route="WtCCtE" /><vehicle actionStepLength="20" depart="390" id="390" route="StCCtS" /><vehicle actionStepLength="200" depart="391" id="391" route="NtCCtW" /><vehicle actionStepLength="200" depart="392" id="392" route="NtCCtW" /><vehicle actionStepLength="200" depart="393" id="393" route="EtCCtE" /><vehicle actionStepLength="2" depart="394" id="394" route="WtCCtS" /><vehicle actionStepLength="200" depart="395" id="395" route="EtCCtN" /><vehicle actionStepLength="200" depart="396" id="396" route="EtCCtN" /><vehicle actionStepLength="200" depart="397" id="397" route="WtCCtS" /><vehicle actionStepLength="200" depart="398" id="398" route="WtCCtW" /><vehicle actionStepLength="200" depart="399" id="399" route="EtCCtE" /><vehicle actionStepLength="200" depart="400" id="400" route="WtCCtW" /><vehicle actionStepLength="20" depart="401" id="401" route="WtCCtW" /><vehicle actionStepLength="20" depart="402" id="402" route="NtCCtN" /><vehicle actionStepLength="200" depart="403" id="403" route="EtCCtE" /><vehicle actionStepLength="200" depart="404" id="404" route="EtCCtE" /><vehicle actionStepLength="800" depart="405" id="405" route="WtCCtS" /><vehicle actionStepLength="20" depart="406" id="406" route="EtCCtN" /><vehicle actionStepLength="200" depart="407" id="407" route="WtCCtN" /><vehicle actionStepLength="200" depart="408" id="408" route="WtCCtW" /><vehicle actionStepLength="2" depart="409" id="409" route="EtCCtS" /><vehicle actionStepLength="20" depart="410" id="410" route="NtCCtS" /><vehicle actionStepLength="2" depart="411" id="411" route="StCCtE" /><vehicle actionStepLength="20" depart="412" id="412" route="StCCtN" /><vehicle actionStepLength="200" depart="413" id="413" route="EtCCtW" /><vehicle actionStepLength="200" depart="414" id="414" route="WtCCtE" /><vehicle actionStepLength="2" depart="415" id="415" route="StCCtS" /><vehicle actionStepLength="20" depart="416" id="416" route="WtCCtE" /><vehicle actionStepLength="200" depart="417" id="417" route="WtCCtS" /><vehicle actionStepLength="200" depart="418" id="418" route="WtCCtN" /><vehicle actionStepLength="20" depart="419" id="41