<?xml version="1.0" encoding="UTF-8"?>

<!-- generated on 19/04/08 17:34:19 by Netedit Version 0.32.0
<?xml version="1.0" encoding="UTF-8"?>

<configuration xmlns:xsi="http://www.w3.org/2001/XMLSchema-instance" xsi:noNamespaceSchemaLocation="http://sumo.dlr.de/xsd/netconvertConfiguration.xsd">

    <input>
        <sumo-net-file value="C:\Users\jstawik\Desktop\PWR\CT\vanet\driver_delay_demo\reflex_testing\tls_test.net.xml"/>
    </input>

    <output>
        <output-file value="C:\Users\jstawik\Desktop\PWR\CT\vanet\driver_delay_demo\reflex_testing\tls_test.net.xml"/>
    </output>

    <processing>
        <no-turnarounds value="true"/>
        <offset.disable-normalization value="true"/>
        <lefthand value="false"/>
        <junctions.corner-detail value="5"/>
        <rectangular-lane-cut value="false"/>
        <walkingareas value="false"/>
    </processing>

</configuration>
-->

<net version="0.27" junctionCornerDetail="5" xmlns:xsi="http://www.w3.org/2001/XMLSchema-instance" xsi:noNamespaceSchemaLocation="http://sumo.dlr.de/xsd/net_file.xsd">

    <location netOffset="0.00,0.00" convBoundary="0.00,0.00,800.00,0.00" origBoundary="-10000000000.00,-10000000000.00,10000000000.00,10000000000.00" projParameter="!"/>

    <edge id=":1_0" function="internal">
        <lane id=":1_0_0" index="0" speed="13.89" length="0.10" shape="400.00,-1.65 400.00,-1.65"/>
    </edge>

    <edge id="01" from="0" to="1" priority="-1">
        <lane id="01_0" index="0" speed="13.89" length="400.00" shape="-0.00,-1.65 400.00,-1.65"/>
    </edge>
    <edge id="12" from="1" to="2" priority="-1">
        <lane id="12_0" index="0" speed="13.89" length="400.00" shape="400.00,-1.65 800.00,-1.65"/>
    </edge>

    <tlLogic id="1" type="static" programID="0" offset="0">
        <phase duration="120" state="r"/>
        <phase duration="200" state="G"/>
        <phase duration="3" state="y"/>
    </tlLogic>

    <junction id="0" type="dead_end" x="0.00" y="0.00" incLanes="" intLanes="" shape="-0.00,-0.05 -0.00,-3.25"/>
    <junction id="1" type="traffic_light" x="400.00" y="0.00" incLanes="01_0" intLanes=":1_0_0" shape="400.00,-0.05 400.00,-3.25 400.00,-0.05">
        <request index="0" response="0" foes="0" cont="0"/>
    </junction>
    <junction id="2" type="dead_end" x="800.00" y="0.00" incLanes="12_0" intLanes="" shape="800.00,-3.25 800.00,-0.05"/>

    <connection from="01" to="12" fromLane="0" toLane="0" via=":1_0_0" tl="1" linkIndex="0" dir="s" state="o"/>

    <connection from=":1_0" to="12" fromLane="0" toLane="0" dir="s" state="M"/>

</net>
