<routes><vType actionStepLength="0.2" departSpeed="max" id="0.2" tau="0.30000000000000004" /><vType actionStepLength="0.4" departSpeed="max" id="0.4" tau="0.5" /><vType actionStepLength="0.6" departSpeed="max" id="0.6" tau="0.7" /><vType actionStepLength="0.8" departSpeed="max" id="0.8" tau="0.9" /><vType actionStepLength="1.0" departSpeed="max" id="1.0" tau="1.1" /><route edges="01 12" id="0112" /><vehicle depart="0" id="0" route="0112" type="0.6" /><vehicle depart="1" id="1" route="0112" type="0.2" /><vehicle depart="2" id="2" route="0112" type="1.0" /><vehicle depart="3" id="3" route="0112" type="0.2" /><vehicle depart="4" id="4" route="0112" type="0.2" /><vehicle depart="5" id="5" route="0112" type="0.8" /><vehicle depart="6" id="6" route="0112" type="1.0" /><vehicle depart="7" id="7" route="0112" type="0.6" /><vehicle depart="8" id="8" route="0112" type="1.0" /><vehicle depart="9" id="9" route="0112" type="0.2" /><vehicle depart="10" id="10" route="0112" type="0.4" /><vehicle depart="11" id="11" route="0112" type="0.8" /><vehicle depart="12" id="12" route="0112" type="0.6" /><vehicle depart="13" id="13" route="0112" type="0.4" /><vehicle depart="14" id="14" route="0112" type="0.8" /><vehicle depart="15" id="15" route="0112" type="0.6" /><vehicle depart="16" id="16" route="0112" type="0.4" /><vehicle depart="17" id="17" route="0112" type="0.8" /><vehicle depart="18" id="18" route="0112" type="0.6" /><vehicle depart="19" id="19" route="0112" type="0.6" /><vehicle depart="20" id="20" route="0112" type="0.6" /><vehicle depart="21" id="21" route="0112" type="0.6" /><vehicle depart="22" id="22" route="0112" type="0.2" /><vehicle depart="23" id="23" route="0112" type="0.4" /><vehicle depart="24" id="24" route="0112" type="0.4" /><vehicle depart="25" id="25" route="0112" type="0.6" /><vehicle depart="26" id="26" route="0112" type="0.6" /><vehicle depart="27" id="27" route="0112" type="0.8" /><vehicle depart="28" id="28" route="0112" type="0.8" /><vehicle depart="29" id="29" route="0112" type="1.0" /></routes>