<configuration>
    <input>
        <net-file value="tls_test.net.xml"/>
        <route-files value="novanet_routes.rou.xml"/>
    </input>
    <time>
        <begin value="0"/>
        <end value="250"/>
		<step-length value="0.01"/>
    </time>
	
    <processing>
        <step-method.ballistic value="true"/>
    </processing>
	
</configuration>